10
Coordinates from ORCA-job acetoneOpt
  O   0.03423780960108     -1.05161130877713      0.03681972032773
  C   -0.88048510918943     -1.81862811792600     -0.13256550524500
  C   -1.43169908878515     -2.65665801795532      0.99152152538450
  C   -1.53206829092924     -1.99188994473356     -1.47990076274550
  H   -0.97768135869757     -2.36205989968062      1.93560042927760
  H   -2.51964169015482     -2.56225349598952      1.05055378646444
  H   -1.21588095356342     -3.71263013247654      0.79984319648584
  H   -0.98945291958880     -1.42428010235208     -2.23320073330654
  H   -2.56750769730697     -1.64117561418999     -1.43565570182853
  H   -1.56882070138566     -3.04881336591922     -1.75801595481451
